Version 4.1
SHEET 1 880 680
WIRE 496 64 240 64
WIRE 496 112 496 64
WIRE 240 128 240 64
WIRE 272 176 240 176
WIRE 192 208 48 208
WIRE 240 240 240 224
WIRE 272 240 272 176
WIRE 272 240 240 240
WIRE 48 256 48 208
WIRE 496 256 496 192
WIRE 240 304 240 240
WIRE 48 368 48 336
FLAG 48 368 0
FLAG 240 304 0
FLAG 496 256 0
SYMBOL nmos4 192 128 R0
WINDOW 0 86 23 Left 2
WINDOW 3 87 47 Left 2
WINDOW 123 87 75 Left 2
SYMATTR InstName M1
SYMATTR Value NMOS_PTM
SYMATTR Value2 l=180n w=360n
SYMBOL voltage 48 240 R0
SYMATTR InstName Vgs
SYMATTR Value 0
SYMBOL voltage 496 96 R0
SYMATTR InstName Vds
SYMATTR Value 1
TEXT -224 8 Left 2 !.include "..\\models\\nmos_model.inc"
TEXT -208 56 Left 2 !.dc Vgs 0 1 5m
TEXT -184 416 Left 2 !.param W=360n\n \n.param L=180n\n \n.param Icon= 1u         \n.param Id_target=Icon*(W/L)\n.meas DC Vth_NMOS FIND V(N002) WHEN Id(M1)={Id_target}\n.meas DC Vgs_at_10u FIND V(N002) WHEN Id(M1)=10u
