Version 4.1
SHEET 1 880 800
WIRE 496 64 240 64
WIRE 496 112 496 64
WIRE 240 128 240 64
WIRE 272 176 240 176
WIRE 192 208 48 208
WIRE 240 240 240 224
WIRE 272 240 272 176
WIRE 272 240 240 240
WIRE 48 256 48 208
WIRE 496 256 496 192
WIRE 240 304 240 240
WIRE 48 368 48 336
FLAG 48 368 0
FLAG 240 304 0
FLAG 496 256 0
SYMBOL nmos4 192 128 R0
WINDOW 0 86 23 Left 2
WINDOW 3 87 47 Left 2
WINDOW 123 87 75 Left 2
SYMATTR InstName M1
SYMATTR Value NMOS_PTM
SYMATTR Value2 l=180n w=360n
SYMBOL voltage 48 240 R0
WINDOW 123 0 0 Left 0
WINDOW 39 0 0 Left 0
SYMATTR InstName Vgs
SYMATTR Value 2
SYMBOL voltage 496 96 R0
SYMATTR InstName Vds
SYMATTR Value 0
TEXT -224 8 Left 2 !.include "..\\models\\nmos_model.inc"
TEXT -224 184 Left 2 !.dc Vds 0 2 5m
